@<TRIPOS>MOLECULE
LIG
   32    33     1     0     0
SMALL
No Charge or Current Charge


@<TRIPOS>ATOM
      1 C1          46.9800    44.4810    45.6710 ca         1 LIG       0.125200
      2 C2          46.0060    43.6490    45.0850 ca         1 LIG      -0.055600
      3 C3          46.2240    42.2840    44.9510 ca         1 LIG      -0.088200
      4 C4          46.0910    47.8420    47.1300 ca         1 LIG       0.189100
      5 C5          46.7040    45.9320    45.7050 c          1 LIG       0.469100
      6 C6          45.8770    48.8280    46.1430 ca         1 LIG      -0.138100
      7 C7          45.4320    50.0870    46.5440 ca         1 LIG       0.088700
      8 C8          48.1690    43.9080    46.1600 ca         1 LIG      -0.056100
      9 C9          47.4010    41.7320    45.4260 ca         1 LIG      -0.145600
     10 C10         48.3680    42.5380    46.0260 ca         1 LIG      -0.086400
     11 Cl1         44.5040    44.3240    44.5670 cl         1 LIG      -0.062700
     12 O1          46.6890    46.5480    44.6340 o          1 LIG      -0.472700
     13 N1          46.4350    46.5100    46.8880 ns         1 LIG      -0.363800
     14 N2          45.2470    50.3580    47.8350 nb         1 LIG      -0.548100
     15 C11         45.4450    49.4650    48.8060 ca         1 LIG       0.579600
     16 C12         45.8510    48.1730    48.4630 ca         1 LIG      -0.418800
     17 N3          45.2270    49.9020    50.1110 ns         1 LIG      -0.535600
     18 C13         45.6200    49.3430    51.2700 c          1 LIG       0.701100
     19 O2          46.2940    48.3200    51.3760 o          1 LIG      -0.587800
     20 C14         45.1730    50.0380    52.5430 c3         1 LIG      -0.379200
     21 Cl2         49.3820    44.8510    46.9720 cl         1 LIG      -0.063100
     22 H1          45.4750    41.6610    44.4920 ha         1 LIG       0.146900
     23 H2          46.0020    48.6670    45.0870 ha         1 LIG       0.126500
     24 H3          45.2370    50.8760    45.8300 h4         1 LIG       0.126900
     25 H4          47.5720    40.6690    45.3260 ha         1 LIG       0.160700
     26 H5          49.2640    42.0980    46.4300 ha         1 LIG       0.146500
     27 H6          46.4930    45.9100    47.6930 hn         1 LIG       0.281800
     28 H7          45.9830    47.4200    49.2220 ha         1 LIG       0.217100
     29 H8          44.6160    50.7030    50.1750 hn         1 LIG       0.287400
     30 H9          44.6400    50.9610    52.3240 hc         1 LIG       0.118400
     31 H10         46.0340    50.2860    53.1630 hc         1 LIG       0.118400
     32 H11         44.5190    49.3930    53.1270 hc         1 LIG       0.118400
@<TRIPOS>BOND
     1     1     2 ar  
     2     1     5 1   
     3     1     8 ar  
     4     2     3 ar  
     5     2    11 1   
     6     3     9 ar  
     7     3    22 1   
     8     4     6 ar  
     9     4    13 1   
    10     4    16 ar  
    11     5    12 2   
    12     5    13 1   
    13     6     7 ar  
    14     6    23 1   
    15     7    14 ar  
    16     7    24 1   
    17     8    10 ar  
    18     8    21 1   
    19     9    10 ar  
    20     9    25 1   
    21    10    26 1   
    22    13    27 1   
    23    14    15 ar  
    24    15    16 ar  
    25    15    17 1   
    26    16    28 1   
    27    17    18 1   
    28    17    29 1   
    29    18    19 2   
    30    18    20 1   
    31    20    30 1   
    32    20    31 1   
    33    20    32 1   
@<TRIPOS>SUBSTRUCTURE
     1 LIG         1 TEMP              0 ****  ****    0 ROOT
