@<TRIPOS>MOLECULE
LIG
   39    41     1     0     0
SMALL
No Charge or Current Charge


@<TRIPOS>ATOM
      1 C1          46.9800    44.4810    45.6710 ca         1 LIG       0.112400
      2 C2          46.0060    43.6490    45.0850 ca         1 LIG      -0.054900
      3 C3          46.2240    42.2840    44.9510 ca         1 LIG      -0.078200
      4 C4          46.0910    47.8420    47.1300 ca         1 LIG       0.158100
      5 C5          46.7040    45.9320    45.7050 c          1 LIG       0.481100
      6 C6          45.8770    48.8280    46.1430 ca         1 LIG      -0.139600
      7 C7          45.4320    50.0870    46.5440 ca         1 LIG       0.083200
      8 C8          48.1690    43.9080    46.1600 ca         1 LIG      -0.054900
      9 C9          47.4010    41.7320    45.4260 ca         1 LIG      -0.155700
     10 C10         48.3680    42.5380    46.0260 ca         1 LIG      -0.078200
     11 Cl1         44.5040    44.3240    44.5670 cl         1 LIG      -0.063600
     12 O1          46.6890    46.5480    44.6340 o          1 LIG      -0.472700
     13 N1          46.4350    46.5100    46.8880 ns         1 LIG      -0.368600
     14 N2          45.2470    50.3580    47.8350 nb         1 LIG      -0.544300
     15 C11         45.4450    49.4650    48.8060 ca         1 LIG       0.557400
     16 C12         45.8510    48.1730    48.4630 ca         1 LIG      -0.335300
     17 N3          45.3340    49.8810    50.1600 ns         1 LIG      -0.487400
     18 C13         45.6930    49.2180    51.2980 c          1 LIG       0.499000
     19 O2          46.1350    48.0690    51.3170 o          1 LIG      -0.487800
     20 Cl2         49.3820    44.8510    46.9720 cl         1 LIG      -0.063600
     21 H1          45.4750    41.6610    44.4920 ha         1 LIG       0.143700
     22 H2          46.0020    48.6670    45.0870 ha         1 LIG       0.128700
     23 H3          45.2370    50.8760    45.8300 h4         1 LIG       0.129400
     24 H4          47.5720    40.6690    45.3260 ha         1 LIG       0.162400
     25 H5          49.2640    42.0980    46.4300 ha         1 LIG       0.143700
     26 H6          46.4930    45.9090    47.6930 hn         1 LIG       0.292700
     27 H7          45.9950    47.3980    49.1920 ha         1 LIG       0.157600
     28 H8          44.9090    50.7870    50.2740 hn         1 LIG       0.277900
     29 H9          45.0690    50.9140    52.5730 hc         1 LIG       0.063400
     30 C14         45.5570    49.9430    52.6650 cy         1 LIG      -0.065500
     31 C15         46.8710    49.9150    53.5010 cy         1 LIG      -0.045000
     32 C16         46.0120    49.6920    54.7450 cy         1 LIG      -0.081800
     33 C17         44.9720    49.0740    53.8090 cy         1 LIG      -0.045000
     34 H10         47.5380    49.0740    53.3030 hc         1 LIG       0.038500
     35 H11         47.4670    50.8240    53.5190 hc         1 LIG       0.038500
     36 H12         46.4300    49.0240    55.4990 hc         1 LIG       0.038700
     37 H13         45.6800    50.6150    55.2280 hc         1 LIG       0.038700
     38 H14         45.0820    47.9930    53.6950 hc         1 LIG       0.038500
     39 H15         43.9510    49.3000    54.0950 hc         1 LIG       0.038500
@<TRIPOS>BOND
     1     1     2 ar  
     2     1     5 1   
     3     1     8 ar  
     4     2     3 ar  
     5     2    11 1   
     6     3     9 ar  
     7     3    21 1   
     8     4     6 ar  
     9     4    13 1   
    10     4    16 ar  
    11     5    12 2   
    12     5    13 1   
    13     6     7 ar  
    14     6    22 1   
    15     7    14 ar  
    16     7    23 1   
    17     8    10 ar  
    18     8    20 1   
    19     9    10 ar  
    20     9    24 1   
    21    10    25 1   
    22    13    26 1   
    23    14    15 ar  
    24    15    16 ar  
    25    15    17 1   
    26    16    27 1   
    27    17    18 1   
    28    17    28 1   
    29    18    19 2   
    30    18    30 1   
    31    29    30 1   
    32    30    31 1   
    33    30    33 1   
    34    31    32 1   
    35    31    34 1   
    36    31    35 1   
    37    32    33 1   
    38    32    36 1   
    39    32    37 1   
    40    33    38 1   
    41    33    39 1   
@<TRIPOS>SUBSTRUCTURE
     1 LIG         1 TEMP              0 ****  ****    0 ROOT
