@<TRIPOS>MOLECULE
LIG
   41    42     1     0     0
SMALL
No Charge or Current Charge


@<TRIPOS>ATOM
      1 C1          46.9800    44.4810    45.6710 ca         1 LIG       0.115500
      2 C2          46.0060    43.6490    45.0850 ca         1 LIG      -0.053700
      3 C3          46.2240    42.2840    44.9510 ca         1 LIG      -0.078400
      4 C4          46.0910    47.8420    47.1300 ca         1 LIG       0.174700
      5 C5          46.7040    45.9320    45.7050 c          1 LIG       0.491100
      6 C6          45.8770    48.8280    46.1430 ca         1 LIG      -0.131400
      7 C7          45.4320    50.0870    46.5440 ca         1 LIG       0.077800
      8 C8          48.1690    43.9080    46.1600 ca         1 LIG      -0.055200
      9 C9          47.4010    41.7320    45.4260 ca         1 LIG      -0.155900
     10 C10         48.3680    42.5380    46.0260 ca         1 LIG      -0.079000
     11 Cl1         44.5040    44.3240    44.5670 cl         1 LIG      -0.065000
     12 O1          46.6890    46.5480    44.6340 o          1 LIG      -0.478000
     13 N1          46.4350    46.5100    46.8880 ns         1 LIG      -0.385000
     14 N2          45.2470    50.3580    47.8350 nb         1 LIG      -0.515400
     15 C11         45.4450    49.4650    48.8060 ca         1 LIG       0.454200
     16 C12         45.8510    48.1730    48.4630 ca         1 LIG      -0.332000
     17 N3          45.4660    49.7490    50.2290 ns         1 LIG      -0.290800
     18 C13         46.1350    49.0180    51.2140 c          1 LIG       0.369800
     19 O2          46.8880    48.0840    50.9440 o          1 LIG      -0.505500
     20 C14         45.9870    49.2150    52.7740 c3         1 LIG       0.314400
     21 Cl2         49.3820    44.8510    46.9720 cl         1 LIG      -0.064500
     22 H1          45.4750    41.6610    44.4920 ha         1 LIG       0.143600
     23 H2          46.0030    48.6670    45.0870 ha         1 LIG       0.127500
     24 H3          45.2370    50.8760    45.8310 h4         1 LIG       0.126300
     25 H4          47.5720    40.6690    45.3260 ha         1 LIG       0.162000
     26 H5          49.2640    42.0980    46.4300 ha         1 LIG       0.144100
     27 H6          46.5020    45.9120    47.6950 hn         1 LIG       0.290200
     28 H7          45.8950    47.3520    49.1540 ha         1 LIG       0.175900
     29 H8          44.8620    50.5010    50.5210 hn         1 LIG       0.204100
     30 C15         44.9080    50.2110    53.0900 c3         1 LIG      -0.383000
     31 H9          44.8270    50.3380    54.1700 hc         1 LIG       0.096600
     32 H10         45.0650    51.1820    52.6480 hc         1 LIG       0.096600
     33 H11         43.9560    49.8760    52.7100 hc         1 LIG       0.096600
     34 C16         45.6320    47.8720    53.5100 c3         1 LIG      -0.202200
     35 H12         46.3010    47.6410    54.3400 hc         1 LIG       0.052700
     36 H13         44.6450    47.8930    53.9730 hc         1 LIG       0.052700
     37 H14         45.6810    46.9930    52.8670 hc         1 LIG       0.052700
     38 C17         47.2880    49.6970    53.4860 c3         1 LIG      -0.202200
     39 H15         47.0910    49.9700    54.5240 hc         1 LIG       0.052700
     40 H16         48.0390    48.9080    53.5350 hc         1 LIG       0.052700
     41 H17         47.7590    50.5580    53.0360 hc         1 LIG       0.052700
@<TRIPOS>BOND
     1     1     2 ar  
     2     1     5 1   
     3     1     8 ar  
     4     2     3 ar  
     5     2    11 1   
     6     3     9 ar  
     7     3    22 1   
     8     4     6 ar  
     9     4    13 1   
    10     4    16 ar  
    11     5    12 2   
    12     5    13 1   
    13     6     7 ar  
    14     6    23 1   
    15     7    14 ar  
    16     7    24 1   
    17     8    10 ar  
    18     8    21 1   
    19     9    10 ar  
    20     9    25 1   
    21    10    26 1   
    22    13    27 1   
    23    14    15 ar  
    24    15    16 ar  
    25    15    17 1   
    26    16    28 1   
    27    17    18 1   
    28    17    29 1   
    29    18    19 2   
    30    18    20 1   
    31    20    30 1   
    32    20    34 1   
    33    20    38 1   
    34    30    31 1   
    35    30    32 1   
    36    30    33 1   
    37    34    35 1   
    38    34    36 1   
    39    34    37 1   
    40    38    39 1   
    41    38    40 1   
    42    38    41 1   
@<TRIPOS>SUBSTRUCTURE
     1 LIG         1 TEMP              0 ****  ****    0 ROOT
