@<TRIPOS>MOLECULE
LIG
   39    41     1     0     0
SMALL
No Charge or Current Charge


@<TRIPOS>ATOM
      1 C1          46.9800    44.4810    45.6710 ca         1 LIG       0.126200
      2 C2          46.0060    43.6490    45.0850 ca         1 LIG      -0.056000
      3 C3          46.2240    42.2840    44.9510 ca         1 LIG      -0.081500
      4 C4          46.0910    47.8420    47.1300 ca         1 LIG       0.159900
      5 C5          46.7040    45.9320    45.7050 c          1 LIG       0.461500
      6 C6          45.8770    48.8280    46.1430 ca         1 LIG      -0.125100
      7 C7          45.4320    50.0870    46.5440 ca         1 LIG       0.084500
      8 C8          48.1690    43.9080    46.1600 ca         1 LIG      -0.057100
      9 C9          47.4010    41.7320    45.4260 ca         1 LIG      -0.154500
     10 C10         48.3680    42.5380    46.0260 ca         1 LIG      -0.079700
     11 Cl1         44.5040    44.3240    44.5670 cl         1 LIG      -0.062000
     12 O1          46.6890    46.5480    44.6340 o          1 LIG      -0.469000
     13 N1          46.4350    46.5100    46.8880 ns         1 LIG      -0.358600
     14 N2          45.2470    50.3580    47.8350 nb         1 LIG      -0.535100
     15 C11         45.4450    49.4650    48.8060 ca         1 LIG       0.519700
     16 C12         45.8510    48.1730    48.4630 ca         1 LIG      -0.362400
     17 N3          45.3070    49.7380    50.2130 ns         1 LIG      -0.408200
     18 C13         45.9620    49.0190    51.1900 c          1 LIG       0.531000
     19 O2          46.8660    48.2310    50.9280 o          1 LIG      -0.545500
     20 Cl2         49.3820    44.8510    46.9720 cl         1 LIG      -0.063600
     21 H1          45.4750    41.6610    44.4920 ha         1 LIG       0.144600
     22 H2          46.0030    48.6670    45.0870 ha         1 LIG       0.124300
     23 H3          45.2380    50.8760    45.8310 h4         1 LIG       0.126000
     24 H4          47.5720    40.6690    45.3260 ha         1 LIG       0.162200
     25 H5          49.2640    42.0980    46.4300 ha         1 LIG       0.144200
     26 H6          46.5000    45.9110    47.6930 hn         1 LIG       0.282000
     27 H7          45.8970    47.3530    49.1570 ha         1 LIG       0.200600
     28 H8          44.5790    50.3880    50.4720 hn         1 LIG       0.250400
     29 C14         45.3510    48.9810    55.4550 ca         1 LIG      -0.103200
     30 C15         45.1990    50.1680    54.7500 ca         1 LIG      -0.157000
     31 C16         45.2860    50.1860    53.3550 ca         1 LIG      -0.132800
     32 C17         45.6060    49.0250    52.6610 ca         1 LIG      -0.025500
     33 C18         45.7670    47.8300    53.3950 ca         1 LIG      -0.090000
     34 C19         45.6220    47.8010    54.7770 ca         1 LIG      -0.163400
     35 H9          45.2600    48.9780    56.5320 ha         1 LIG       0.141400
     36 H10         44.9920    51.0830    55.2880 ha         1 LIG       0.145200
     37 H11         45.1300    51.1130    52.8310 ha         1 LIG       0.138200
     38 H12         46.0360    46.9080    52.8960 ha         1 LIG       0.143100
     39 H13         45.7500    46.8750    55.3210 ha         1 LIG       0.145200
@<TRIPOS>BOND
     1     1     2 ar  
     2     1     5 1   
     3     1     8 ar  
     4     2     3 ar  
     5     2    11 1   
     6     3     9 ar  
     7     3    21 1   
     8     4     6 ar  
     9     4    13 1   
    10     4    16 ar  
    11     5    12 2   
    12     5    13 1   
    13     6     7 ar  
    14     6    22 1   
    15     7    14 ar  
    16     7    23 1   
    17     8    10 ar  
    18     8    20 1   
    19     9    10 ar  
    20     9    24 1   
    21    10    25 1   
    22    13    26 1   
    23    14    15 ar  
    24    15    16 ar  
    25    15    17 1   
    26    16    27 1   
    27    17    18 1   
    28    17    28 1   
    29    18    19 2   
    30    18    32 1   
    31    29    30 ar  
    32    29    34 ar  
    33    29    35 1   
    34    30    31 ar  
    35    30    36 1   
    36    31    32 ar  
    37    31    37 1   
    38    32    33 ar  
    39    33    34 ar  
    40    33    38 1   
    41    34    39 1   
@<TRIPOS>SUBSTRUCTURE
     1 LIG         1 TEMP              0 ****  ****    0 ROOT
