@<TRIPOS>MOLECULE
LIG
   42    44     1     0     0
SMALL
No Charge or Current Charge


@<TRIPOS>ATOM
      1 C1          46.9800    44.4810    45.6710 ca         1 LIG       0.116500
      2 C2          46.0060    43.6490    45.0850 ca         1 LIG      -0.054700
      3 C3          46.2240    42.2840    44.9510 ca         1 LIG      -0.077000
      4 C4          46.0910    47.8420    47.1300 ca         1 LIG       0.157500
      5 C5          46.7040    45.9320    45.7050 c          1 LIG       0.467200
      6 C6          45.8770    48.8280    46.1430 ca         1 LIG      -0.132100
      7 C7          45.4320    50.0870    46.5440 ca         1 LIG       0.079200
      8 C8          48.1690    43.9080    46.1600 ca         1 LIG      -0.051300
      9 C9          47.4010    41.7320    45.4260 ca         1 LIG      -0.157000
     10 C10         48.3680    42.5380    46.0260 ca         1 LIG      -0.083300
     11 Cl1         44.5040    44.3240    44.5670 cl         1 LIG      -0.064500
     12 O1          46.6890    46.5480    44.6340 o          1 LIG      -0.468700
     13 N1          46.4350    46.5100    46.8880 ns         1 LIG      -0.364500
     14 N2          45.2470    50.3580    47.8350 nb         1 LIG      -0.544200
     15 C11         45.4450    49.4650    48.8060 ca         1 LIG       0.550200
     16 C12         45.8510    48.1730    48.4630 ca         1 LIG      -0.339600
     17 N3          45.3700    49.8760    50.1840 ns         1 LIG      -0.444200
     18 C13         45.7150    49.1960    51.3340 c          1 LIG       0.453700
     19 O2          46.0820    48.0220    51.3300 o          1 LIG      -0.474600
     20 Cl2         49.3820    44.8510    46.9720 cl         1 LIG      -0.063000
     21 H1          45.4750    41.6610    44.4920 ha         1 LIG       0.143800
     22 H2          46.0020    48.6670    45.0870 ha         1 LIG       0.126300
     23 H3          45.2370    50.8760    45.8300 h4         1 LIG       0.129700
     24 H4          47.5720    40.6690    45.3260 ha         1 LIG       0.163500
     25 H5          49.2640    42.0980    46.4300 ha         1 LIG       0.145100
     26 H6          46.4930    45.9100    47.6930 hn         1 LIG       0.291900
     27 H7          46.0040    47.4000    49.1910 ha         1 LIG       0.157900
     28 H8          44.9970    50.8030    50.3020 hn         1 LIG       0.259100
     29 H9          45.1300    50.8460    52.5930 hc         1 LIG       0.035700
     30 C14         45.6480    49.9000    52.7440 c5         1 LIG       0.002700
     31 C15         44.9720    49.1000    53.8850 c5         1 LIG      -0.004800
     32 C16         45.9980    48.1370    54.4970 c5         1 LIG      -0.024200
     33 C17         47.3560    48.7470    54.1660 c5         1 LIG      -0.012300
     34 C18         47.0190    50.0610    53.4530 c5         1 LIG      -0.049000
     35 H10         44.0900    48.5740    53.6070 hc         1 LIG       0.009500
     36 H11         44.6510    49.8020    54.6570 hc         1 LIG       0.009500
     37 H12         45.8450    48.0200    55.5710 hc         1 LIG       0.012300
     38 H13         45.9110    47.1470    54.0460 hc         1 LIG       0.012300
     39 H14         47.9690    48.9060    55.0540 hc         1 LIG       0.016900
     40 H15         47.9100    48.0810    53.5030 hc         1 LIG       0.016900
     41 H16         47.8230    50.3960    52.8260 hc         1 LIG       0.025800
     42 H17         46.9170    50.8300    54.2170 hc         1 LIG       0.025800
@<TRIPOS>BOND
     1     1     2 ar  
     2     1     5 1   
     3     1     8 ar  
     4     2     3 ar  
     5     2    11 1   
     6     3     9 ar  
     7     3    21 1   
     8     4     6 ar  
     9     4    13 1   
    10     4    16 ar  
    11     5    12 2   
    12     5    13 1   
    13     6     7 ar  
    14     6    22 1   
    15     7    14 ar  
    16     7    23 1   
    17     8    10 ar  
    18     8    20 1   
    19     9    10 ar  
    20     9    24 1   
    21    10    25 1   
    22    13    26 1   
    23    14    15 ar  
    24    15    16 ar  
    25    15    17 1   
    26    16    27 1   
    27    17    18 1   
    28    17    28 1   
    29    18    19 2   
    30    18    30 1   
    31    29    30 1   
    32    30    31 1   
    33    30    34 1   
    34    31    32 1   
    35    31    35 1   
    36    31    36 1   
    37    32    33 1   
    38    32    37 1   
    39    32    38 1   
    40    33    34 1   
    41    33    39 1   
    42    33    40 1   
    43    34    41 1   
    44    34    42 1   
@<TRIPOS>SUBSTRUCTURE
     1 LIG         1 TEMP              0 ****  ****    0 ROOT
