@<TRIPOS>MOLECULE
LIG
   38    39     1     0     0
SMALL
No Charge or Current Charge


@<TRIPOS>ATOM
      1 C1          46.9800    44.4810    45.6710 ca         1 LIG       0.112000
      2 C2          46.0060    43.6490    45.0850 ca         1 LIG      -0.053500
      3 C3          46.2240    42.2840    44.9510 ca         1 LIG      -0.077100
      4 C4          46.0910    47.8420    47.1300 ca         1 LIG       0.169600
      5 C5          46.7040    45.9320    45.7050 c          1 LIG       0.490200
      6 C6          45.8770    48.8280    46.1430 ca         1 LIG      -0.143500
      7 C7          45.4320    50.0870    46.5440 ca         1 LIG       0.089900
      8 C8          48.1690    43.9080    46.1600 ca         1 LIG      -0.053500
      9 C9          47.4010    41.7320    45.4260 ca         1 LIG      -0.157800
     10 C10         48.3680    42.5380    46.0260 ca         1 LIG      -0.077100
     11 Cl1         44.5040    44.3240    44.5670 cl         1 LIG      -0.065500
     12 O1          46.6890    46.5480    44.6340 o          1 LIG      -0.478000
     13 N1          46.4350    46.5100    46.8880 ns         1 LIG      -0.369000
     14 N2          45.2470    50.3580    47.8350 nb         1 LIG      -0.547800
     15 C11         45.4450    49.4650    48.8060 ca         1 LIG       0.553700
     16 C12         45.8510    48.1730    48.4630 ca         1 LIG      -0.361300
     17 N3          45.3880    49.8760    50.1820 ns         1 LIG      -0.466200
     18 C13         45.7990    49.2070    51.3130 c          1 LIG       0.498600
     19 O2          46.2250    48.0520    51.3010 o          1 LIG      -0.516700
     20 C14         45.7560    49.8790    52.7290 c3         1 LIG       0.094300
     21 Cl2         49.3820    44.8510    46.9720 cl         1 LIG      -0.065500
     22 H1          45.4750    41.6610    44.4920 ha         1 LIG       0.143500
     23 H2          46.0020    48.6670    45.0870 ha         1 LIG       0.129800
     24 H3          45.2370    50.8760    45.8300 h4         1 LIG       0.127800
     25 H4          47.5720    40.6690    45.3260 ha         1 LIG       0.162500
     26 H5          49.2640    42.0980    46.4300 ha         1 LIG       0.143500
     27 H6          46.4930    45.9100    47.6930 hn         1 LIG       0.285800
     28 H7          45.9950    47.3960    49.1890 ha         1 LIG       0.181400
     29 H8          44.9780    50.7860    50.3140 hn         1 LIG       0.269600
     30 H9          45.3430    50.8800    52.6340 hc         1 LIG       0.015900
     31 C15         47.1370    49.9230    53.4430 c3         1 LIG      -0.185500
     32 H10         47.0550    50.3580    54.4390 hc         1 LIG       0.055900
     33 H11         47.5600    48.9240    53.5660 hc         1 LIG       0.055900
     34 H12         47.8750    50.5270    52.9420 hc         1 LIG       0.055900
     35 C16         44.8640    49.1510    53.7480 c3         1 LIG      -0.186100
     36 H13         45.0540    49.4540    54.7790 hc         1 LIG       0.056100
     37 H14         43.8470    49.4460    53.5830 hc         1 LIG       0.056100
     38 H15         44.9590    48.0660    53.7140 hc         1 LIG       0.056100
@<TRIPOS>BOND
     1     1     2 ar  
     2     1     5 1   
     3     1     8 ar  
     4     2     3 ar  
     5     2    11 1   
     6     3     9 ar  
     7     3    22 1   
     8     4     6 ar  
     9     4    13 1   
    10     4    16 ar  
    11     5    12 2   
    12     5    13 1   
    13     6     7 ar  
    14     6    23 1   
    15     7    14 ar  
    16     7    24 1   
    17     8    10 ar  
    18     8    21 1   
    19     9    10 ar  
    20     9    25 1   
    21    10    26 1   
    22    13    27 1   
    23    14    15 ar  
    24    15    16 ar  
    25    15    17 1   
    26    16    28 1   
    27    17    18 1   
    28    17    29 1   
    29    18    19 2   
    30    18    20 1   
    31    20    30 1   
    32    20    31 1   
    33    20    35 1   
    34    31    32 1   
    35    31    33 1   
    36    31    34 1   
    37    35    36 1   
    38    35    37 1   
    39    35    38 1   
@<TRIPOS>SUBSTRUCTURE
     1 LIG         1 TEMP              0 ****  ****    0 ROOT
