@<TRIPOS>MOLECULE
LIG
   39    41     1     0     0
SMALL
No Charge or Current Charge


@<TRIPOS>ATOM
      1 C1          46.9800    44.4810    45.6710 ca         1 LIG       0.120100
      2 C2          46.0060    43.6490    45.0850 ca         1 LIG      -0.052300
      3 C3          46.2240    42.2840    44.9510 ca         1 LIG      -0.076400
      4 C4          46.0910    47.8420    47.1300 ca         1 LIG       0.185800
      5 C5          46.7040    45.9320    45.7050 c          1 LIG       0.463200
      6 C6          45.8770    48.8280    46.1430 ca         1 LIG      -0.137700
      7 C7          45.4320    50.0870    46.5440 ca         1 LIG       0.097300
      8 C8          48.1690    43.9080    46.1600 ca         1 LIG      -0.053900
      9 C9          47.4010    41.7320    45.4260 ca         1 LIG      -0.161700
     10 C10         48.3680    42.5380    46.0260 ca         1 LIG      -0.076100
     11 Cl1         44.5040    44.3240    44.5670 cl         1 LIG      -0.064600
     12 O1          46.6890    46.5480    44.6340 o          1 LIG      -0.468700
     13 N1          46.4350    46.5100    46.8880 ns         1 LIG      -0.366200
     14 N2          45.2470    50.3580    47.8350 nb         1 LIG      -0.552100
     15 C11         45.4450    49.4650    48.8060 ca         1 LIG       0.549900
     16 C12         45.8510    48.1730    48.4630 ca         1 LIG      -0.398000
     17 N3          45.2160    49.8700    50.1280 ns         1 LIG      -0.442300
     18 C13         45.6580    49.2910    51.2660 c          1 LIG       0.569000
     19 O2          46.4370    48.3390    51.2960 o          1 LIG      -0.562000
     20 C14         45.1130    49.8430    52.5900 c3         1 LIG      -0.250200
     21 Cl2         49.3820    44.8510    46.9720 cl         1 LIG      -0.064300
     22 H1          45.4750    41.6610    44.4920 ha         1 LIG       0.143300
     23 H2          46.0020    48.6670    45.0870 ha         1 LIG       0.124500
     24 H3          45.2370    50.8760    45.8300 h4         1 LIG       0.124100
     25 H4          47.5720    40.6690    45.3260 ha         1 LIG       0.163800
     26 H5          49.2640    42.0980    46.4300 ha         1 LIG       0.143400
     27 H6          46.4940    45.9100    47.6930 hn         1 LIG       0.282000
     28 H7          45.9730    47.4120    49.2150 ha         1 LIG       0.214800
     29 H8          44.5420    50.6180    50.2190 hn         1 LIG       0.264100
     30 H9          45.4890    50.8460    52.7380 hc         1 LIG       0.115500
     31 H10         44.0430    49.9740    52.4900 hc         1 LIG       0.115500
     32 H11         44.9790    48.0050    53.8470 hc         1 LIG       0.122900
     33 C15         45.4300    48.9980    53.8490 cx         1 LIG      -0.011300
     34 C16         46.7910    49.1540    54.4860 cx         1 LIG      -0.226000
     35 C17         45.5620    49.7160    55.1720 cx         1 LIG      -0.364000
     36 H12         47.2740    48.2700    54.9070 hc         1 LIG       0.117600
     37 H13         47.5050    49.8320    54.0170 hc         1 LIG       0.117600
     38 H14         45.1870    49.2260    56.0720 hc         1 LIG       0.146700
     39 H15         45.4190    50.7980    55.2030 hc         1 LIG       0.146700
@<TRIPOS>BOND
     1     1     2 ar  
     2     1     5 1   
     3     1     8 ar  
     4     2     3 ar  
     5     2    11 1   
     6     3     9 ar  
     7     3    22 1   
     8     4     6 ar  
     9     4    13 1   
    10     4    16 ar  
    11     5    12 2   
    12     5    13 1   
    13     6     7 ar  
    14     6    23 1   
    15     7    14 ar  
    16     7    24 1   
    17     8    10 ar  
    18     8    21 1   
    19     9    10 ar  
    20     9    25 1   
    21    10    26 1   
    22    13    27 1   
    23    14    15 ar  
    24    15    16 ar  
    25    15    17 1   
    26    16    28 1   
    27    17    18 1   
    28    17    29 1   
    29    18    19 2   
    30    18    20 1   
    31    20    30 1   
    32    20    31 1   
    33    20    33 1   
    34    32    33 1   
    35    33    34 1   
    36    33    35 1   
    37    34    35 1   
    38    34    36 1   
    39    34    37 1   
    40    35    38 1   
    41    35    39 1   
@<TRIPOS>SUBSTRUCTURE
     1 LIG         1 TEMP              0 ****  ****    0 ROOT
