@<TRIPOS>MOLECULE
LIG
   33    34     1     0     0
SMALL
No Charge or Current Charge


@<TRIPOS>ATOM
      1 C1          46.9800    44.4810    45.6710 ca         1 LIG       0.129000
      2 C2          46.0060    43.6490    45.0850 ca         1 LIG      -0.057800
      3 C3          46.2240    42.2840    44.9510 ca         1 LIG      -0.087200
      4 C4          46.0910    47.8420    47.1300 ca         1 LIG       0.209500
      5 C5          46.7040    45.9320    45.7050 c          1 LIG       0.474800
      6 C6          45.8770    48.8280    46.1430 ca         1 LIG      -0.149200
      7 C7          45.4320    50.0870    46.5440 ca         1 LIG       0.073600
      8 C8          48.1690    43.9080    46.1600 ca         1 LIG      -0.057800
      9 C9          47.4010    41.7320    45.4260 ca         1 LIG      -0.144900
     10 C10         48.3680    42.5380    46.0260 ca         1 LIG      -0.087200
     11 Cl1         44.5040    44.3240    44.5670 cl         1 LIG      -0.063600
     12 O1          46.6890    46.5480    44.6340 o          1 LIG      -0.475300
     13 N1          46.4350    46.5100    46.8880 ns         1 LIG      -0.364600
     14 N2          45.2470    50.3580    47.8350 nb         1 LIG      -0.535500
     15 C11         45.4450    49.4650    48.8060 ca         1 LIG       0.640500
     16 C12         45.8510    48.1730    48.4630 ca         1 LIG      -0.473200
     17 N3          45.2360    49.9110    50.1060 ns         1 LIG      -0.600300
     18 C13         45.5970    49.3160    51.2980 c          1 LIG       0.855400
     19 O2          46.2030    48.2550    51.4540 o          1 LIG      -0.604500
     20 Cl2         49.3820    44.8510    46.9720 cl         1 LIG      -0.063600
     21 H1          45.4750    41.6610    44.4920 ha         1 LIG       0.146800
     22 H2          46.0020    48.6670    45.0870 ha         1 LIG       0.131400
     23 H3          45.2370    50.8760    45.8300 h4         1 LIG       0.132200
     24 H4          47.5720    40.6690    45.3260 ha         1 LIG       0.160100
     25 H5          49.2640    42.0980    46.4300 ha         1 LIG       0.146800
     26 H6          46.4920    45.9090    47.6930 hn         1 LIG       0.280500
     27 H7          45.9910    47.4250    49.2260 ha         1 LIG       0.224100
     28 H8          44.6470    50.7250    50.1910 hn         1 LIG       0.299100
     29 O3          45.1610    50.0800    52.3030 os         1 LIG      -0.358300
     30 C14         45.4370    49.7230    53.6530 c3         1 LIG      -0.070000
     31 H9          46.5030    49.5490    53.8100 h1         1 LIG       0.096400
     32 H10         45.1350    50.5270    54.3230 h1         1 LIG       0.096400
     33 H11         44.8920    48.8230    53.9370 h1         1 LIG       0.096400
@<TRIPOS>BOND
     1     1     2 ar  
     2     1     5 1   
     3     1     8 ar  
     4     2     3 ar  
     5     2    11 1   
     6     3     9 ar  
     7     3    21 1   
     8     4     6 ar  
     9     4    13 1   
    10     4    16 ar  
    11     5    12 2   
    12     5    13 1   
    13     6     7 ar  
    14     6    22 1   
    15     7    14 ar  
    16     7    23 1   
    17     8    10 ar  
    18     8    20 1   
    19     9    10 ar  
    20     9    24 1   
    21    10    25 1   
    22    13    26 1   
    23    14    15 ar  
    24    15    16 ar  
    25    15    17 1   
    26    16    27 1   
    27    17    18 1   
    28    17    28 1   
    29    18    19 2   
    30    18    29 1   
    31    29    30 1   
    32    30    31 1   
    33    30    32 1   
    34    30    33 1   
@<TRIPOS>SUBSTRUCTURE
     1 LIG         1 TEMP              0 ****  ****    0 ROOT
