@<TRIPOS>MOLECULE
LIG
   33    34     1     0     0
SMALL
No Charge or Current Charge


@<TRIPOS>ATOM
      1 C1          46.9800    44.4810    45.6710 ca         1 LIG       0.120000
      2 C2          46.0060    43.6490    45.0850 ca         1 LIG      -0.057500
      3 C3          46.2240    42.2840    44.9510 ca         1 LIG      -0.084800
      4 C4          46.0910    47.8420    47.1300 ca         1 LIG       0.164000
      5 C5          46.7040    45.9320    45.7050 c          1 LIG       0.490300
      6 C6          45.8770    48.8280    46.1430 ca         1 LIG      -0.127100
      7 C7          45.4320    50.0870    46.5440 ca         1 LIG       0.076100
      8 C8          48.1690    43.9080    46.1600 ca         1 LIG      -0.057500
      9 C9          47.4010    41.7320    45.4260 ca         1 LIG      -0.145300
     10 C10         48.3680    42.5380    46.0260 ca         1 LIG      -0.084800
     11 Cl1         44.5040    44.3240    44.5670 cl         1 LIG      -0.063800
     12 O1          46.6890    46.5480    44.6340 o          1 LIG      -0.476500
     13 N1          46.4350    46.5100    46.8880 ns         1 LIG      -0.363200
     14 N2          45.2470    50.3580    47.8350 nb         1 LIG      -0.528300
     15 C11         45.4450    49.4650    48.8060 ca         1 LIG       0.552300
     16 C12         45.8510    48.1730    48.4630 ca         1 LIG      -0.372300
     17 N3          45.1940    49.8980    50.1060 ns         1 LIG      -0.456800
     18 C13         45.6320    49.3920    51.2750 c          1 LIG       0.493100
     19 O2          46.3770    48.4140    51.3710 o          1 LIG      -0.530100
     20 C14         45.1140    50.0960    52.5500 c3         1 LIG       0.212200
     21 Cl2         49.3820    44.8510    46.9720 cl         1 LIG      -0.063800
     22 H1          45.4750    41.6610    44.4920 ha         1 LIG       0.147100
     23 H2          46.0030    48.6670    45.0870 ha         1 LIG       0.129200
     24 H3          45.2380    50.8760    45.8300 h4         1 LIG       0.132300
     25 H4          47.5720    40.6690    45.3260 ha         1 LIG       0.160900
     26 H5          49.2640    42.0980    46.4300 ha         1 LIG       0.147100
     27 H6          46.4930    45.9090    47.6930 hn         1 LIG       0.281600
     28 H7          45.9790    47.4240    49.2270 ha         1 LIG       0.196500
     29 H8          44.5300    50.6590    50.1520 hn         1 LIG       0.256300
     30 H9          44.6630    51.0550    52.2980 h1         1 LIG       0.046800
     31 H10         44.3340    49.4860    52.9970 h1         1 LIG       0.046800
     32 O3          46.1390    50.2860    53.5290 oh         1 LIG      -0.646300
     33 H11         46.1060    51.2220    53.8010 ho         1 LIG       0.405500
@<TRIPOS>BOND
     1     1     2 ar  
     2     1     5 1   
     3     1     8 ar  
     4     2     3 ar  
     5     2    11 1   
     6     3     9 ar  
     7     3    22 1   
     8     4     6 ar  
     9     4    13 1   
    10     4    16 ar  
    11     5    12 2   
    12     5    13 1   
    13     6     7 ar  
    14     6    23 1   
    15     7    14 ar  
    16     7    24 1   
    17     8    10 ar  
    18     8    21 1   
    19     9    10 ar  
    20     9    25 1   
    21    10    26 1   
    22    13    27 1   
    23    14    15 ar  
    24    15    16 ar  
    25    15    17 1   
    26    16    28 1   
    27    17    18 1   
    28    17    29 1   
    29    18    19 2   
    30    18    20 1   
    31    20    30 1   
    32    20    31 1   
    33    20    32 1   
    34    32    33 1   
@<TRIPOS>SUBSTRUCTURE
     1 LIG         1 TEMP              0 ****  ****    0 ROOT
