@<TRIPOS>MOLECULE
LIG
   37    38     1     0     0
SMALL
No Charge or Current Charge


@<TRIPOS>ATOM
      1 C1          46.9800    44.4810    45.6710 ca         1 LIG       0.122400
      2 C2          46.0060    43.6490    45.0850 ca         1 LIG      -0.053000
      3 C3          46.2240    42.2840    44.9510 ca         1 LIG      -0.079600
      4 C4          46.0910    47.8420    47.1300 ca         1 LIG       0.203900
      5 C5          46.7040    45.9320    45.7050 c          1 LIG       0.438600
      6 C6          45.8770    48.8280    46.1430 ca         1 LIG      -0.154400
      7 C7          45.4320    50.0870    46.5440 ca         1 LIG       0.083700
      8 C8          48.1690    43.9080    46.1600 ca         1 LIG      -0.057100
      9 C9          47.4010    41.7320    45.4260 ca         1 LIG      -0.158100
     10 C10         48.3680    42.5380    46.0260 ca         1 LIG      -0.077700
     11 Cl1         44.5040    44.3240    44.5670 cl         1 LIG      -0.063500
     12 O1          46.6890    46.5480    44.6340 o          1 LIG      -0.460200
     13 N1          46.4350    46.5100    46.8880 ns         1 LIG      -0.358000
     14 N2          45.2470    50.3580    47.8350 nb         1 LIG      -0.552300
     15 C11         45.4450    49.4650    48.8060 ca         1 LIG       0.636900
     16 C12         45.8510    48.1730    48.4630 ca         1 LIG      -0.425400
     17 N3          45.2110    49.8890    50.1180 ns         1 LIG      -0.626900
     18 C13         45.6430    49.3320    51.2630 c          1 LIG       0.830400
     19 O2          46.3860    48.3560    51.3410 o          1 LIG      -0.542700
     20 Cl2         49.3820    44.8510    46.9720 cl         1 LIG      -0.062100
     21 H1          45.4750    41.6610    44.4920 ha         1 LIG       0.143700
     22 H2          46.0030    48.6670    45.0870 ha         1 LIG       0.128300
     23 H3          45.2370    50.8760    45.8300 h4         1 LIG       0.127200
     24 H4          47.5720    40.6690    45.3260 ha         1 LIG       0.163200
     25 H5          49.2640    42.0980    46.4300 ha         1 LIG       0.144000
     26 H6          46.4940    45.9100    47.6930 hn         1 LIG       0.296700
     27 H7          45.9780    47.4180    49.2220 ha         1 LIG       0.169900
     28 H8          44.5720    50.6670    50.1900 hn         1 LIG       0.296700
     29 H9          44.5180    50.7180    52.2200 hn         1 LIG       0.397600
     30 N4          45.2020    49.9870    52.3450 ns         1 LIG      -0.729700
     31 C14         45.7060    49.7970    53.7090 c3         1 LIG       0.105200
     32 H10         45.3850    50.6490    54.3090 h1         1 LIG       0.055700
     33 H11         46.7980    49.8290    53.7050 h1         1 LIG       0.055700
     34 C15         45.2200    48.5070    54.3870 c3         1 LIG      -0.099900
     35 H12         45.6390    48.4170    55.3890 hc         1 LIG       0.033600
     36 H13         44.1370    48.4960    54.4880 hc         1 LIG       0.033600
     37 H14         45.5190    47.6200    53.8270 hc         1 LIG       0.033600
@<TRIPOS>BOND
     1     1     2 ar  
     2     1     5 1   
     3     1     8 ar  
     4     2     3 ar  
     5     2    11 1   
     6     3     9 ar  
     7     3    21 1   
     8     4     6 ar  
     9     4    13 1   
    10     4    16 ar  
    11     5    12 2   
    12     5    13 1   
    13     6     7 ar  
    14     6    22 1   
    15     7    14 ar  
    16     7    23 1   
    17     8    10 ar  
    18     8    20 1   
    19     9    10 ar  
    20     9    24 1   
    21    10    25 1   
    22    13    26 1   
    23    14    15 ar  
    24    15    16 ar  
    25    15    17 1   
    26    16    27 1   
    27    17    18 1   
    28    17    28 1   
    29    18    19 2   
    30    18    30 1   
    31    29    30 1   
    32    30    31 1   
    33    31    32 1   
    34    31    33 1   
    35    31    34 1   
    36    34    35 1   
    37    34    36 1   
    38    34    37 1   
@<TRIPOS>SUBSTRUCTURE
     1 LIG         1 TEMP              0 ****  ****    0 ROOT
