@<TRIPOS>MOLECULE
LIG
   36    38     1     0     0
SMALL
No Charge or Current Charge


@<TRIPOS>ATOM
      1 C1          46.9800    44.4810    45.6710 ca         1 LIG       0.108100
      2 C2          46.0060    43.6490    45.0850 ca         1 LIG      -0.050500
      3 C3          46.2240    42.2840    44.9510 ca         1 LIG      -0.077300
      4 C4          46.0910    47.8420    47.1300 ca         1 LIG       0.168000
      5 C5          46.7040    45.9320    45.7050 c          1 LIG       0.490500
      6 C6          45.8770    48.8280    46.1430 ca         1 LIG      -0.141200
      7 C7          45.4320    50.0870    46.5440 ca         1 LIG       0.101900
      8 C8          48.1690    43.9080    46.1600 ca         1 LIG      -0.053400
      9 C9          47.4010    41.7320    45.4260 ca         1 LIG      -0.158700
     10 C10         48.3680    42.5380    46.0260 ca         1 LIG      -0.074600
     11 Cl1         44.5040    44.3240    44.5670 cl         1 LIG      -0.068400
     12 O1          46.6890    46.5480    44.6340 o          1 LIG      -0.476800
     13 N1          46.4350    46.5100    46.8880 ns         1 LIG      -0.373500
     14 N2          45.2470    50.3580    47.8350 nb         1 LIG      -0.545000
     15 C11         45.4450    49.4650    48.8060 ca         1 LIG       0.485200
     16 C12         45.8510    48.1730    48.4630 ca         1 LIG      -0.321200
     17 N3          45.2400    49.8760    50.1300 ns         1 LIG      -0.354500
     18 C13         45.7010    49.3120    51.2690 c          1 LIG       0.447700
     19 O2          46.4780    48.3580    51.3020 o          1 LIG      -0.457000
     20 C14         45.1240    49.8790    52.5800 cx         1 LIG      -0.148000
     21 C15         45.0220    48.8840    53.7410 cx         1 LIG      -0.209500
     22 C16         45.9710    50.0340    53.8450 cx         1 LIG      -0.095600
     23 Cl2         49.3820    44.8510    46.9720 cl         1 LIG      -0.062000
     24 H1          45.4750    41.6610    44.4920 ha         1 LIG       0.144100
     25 H2          46.0030    48.6670    45.0870 ha         1 LIG       0.127600
     26 H3          45.2370    50.8760    45.8300 h4         1 LIG       0.123700
     27 H4          47.5720    40.6690    45.3260 ha         1 LIG       0.162600
     28 H5          49.2640    42.0980    46.4300 ha         1 LIG       0.142500
     29 H6          46.4940    45.9100    47.6930 hn         1 LIG       0.288800
     30 H7          45.9790    47.4150    49.2180 ha         1 LIG       0.164400
     31 H8          44.5650    50.6220    50.2240 hn         1 LIG       0.253900
     32 H9          44.3420    50.6140    52.4270 hc         1 LIG       0.135200
     33 H10         45.4450    47.8810    53.6550 hc         1 LIG       0.139700
     34 H11         44.1400    48.8990    54.3810 hc         1 LIG       0.139700
     35 H12         45.7040    50.8110    54.5620 h1         1 LIG       0.159900
     36 Cl3         47.7240    49.7360    53.9610 cl         1 LIG      -0.116300
@<TRIPOS>BOND
     1     1     2 ar  
     2     1     5 1   
     3     1     8 ar  
     4     2     3 ar  
     5     2    11 1   
     6     3     9 ar  
     7     3    24 1   
     8     4     6 ar  
     9     4    13 1   
    10     4    16 ar  
    11     5    12 2   
    12     5    13 1   
    13     6     7 ar  
    14     6    25 1   
    15     7    14 ar  
    16     7    26 1   
    17     8    10 ar  
    18     8    23 1   
    19     9    10 ar  
    20     9    27 1   
    21    10    28 1   
    22    13    29 1   
    23    14    15 ar  
    24    15    16 ar  
    25    15    17 1   
    26    16    30 1   
    27    17    18 1   
    28    17    31 1   
    29    18    19 2   
    30    18    20 1   
    31    20    21 1   
    32    20    22 1   
    33    20    32 1   
    34    21    22 1   
    35    21    33 1   
    36    21    34 1   
    37    22    35 1   
    38    22    36 1   
@<TRIPOS>SUBSTRUCTURE
     1 LIG         1 TEMP              0 ****  ****    0 ROOT
