@<TRIPOS>MOLECULE
LIG
   36    38     1     0     0
SMALL
No Charge or Current Charge


@<TRIPOS>ATOM
      1 C1          46.9800    44.4810    45.6710 ca         1 LIG       0.115600
      2 C2          46.0060    43.6490    45.0850 ca         1 LIG      -0.052300
      3 C3          46.2240    42.2840    44.9510 ca         1 LIG      -0.080000
      4 C4          46.0910    47.8420    47.1300 ca         1 LIG       0.179400
      5 C5          46.7040    45.9320    45.7050 c          1 LIG       0.466300
      6 C6          45.8770    48.8280    46.1430 ca         1 LIG      -0.140000
      7 C7          45.4320    50.0870    46.5440 ca         1 LIG       0.091500
      8 C8          48.1690    43.9080    46.1600 ca         1 LIG      -0.054100
      9 C9          47.4010    41.7320    45.4260 ca         1 LIG      -0.157600
     10 C10         48.3680    42.5380    46.0260 ca         1 LIG      -0.079500
     11 Cl1         44.5040    44.3240    44.5670 cl         1 LIG      -0.065900
     12 O1          46.6890    46.5480    44.6340 o          1 LIG      -0.467400
     13 N1          46.4350    46.5100    46.8880 ns         1 LIG      -0.371800
     14 N2          45.2470    50.3580    47.8350 nb         1 LIG      -0.548200
     15 C11         45.4450    49.4650    48.8060 ca         1 LIG       0.536200
     16 C12         45.8510    48.1730    48.4630 ca         1 LIG      -0.354800
     17 N3          45.2490    49.8800    50.1290 ns         1 LIG      -0.418600
     18 C13         45.6970    49.3020    51.2650 c          1 LIG       0.519800
     19 O2          46.4150    48.3020    51.2980 o          1 LIG      -0.474200
     20 C14         45.2120    49.9310    52.5810 cx         1 LIG      -0.206100
     21 C15         45.0380    48.9730    53.7650 cx         1 LIG      -0.247100
     22 C16         46.1520    49.9730    53.7800 cx         1 LIG       0.103600
     23 Cl2         49.3820    44.8510    46.9720 cl         1 LIG      -0.061600
     24 H1          45.4750    41.6610    44.4920 ha         1 LIG       0.145000
     25 H2          46.0030    48.6670    45.0870 ha         1 LIG       0.126400
     26 H3          45.2370    50.8760    45.8300 h4         1 LIG       0.126500
     27 H4          47.5720    40.6690    45.3260 ha         1 LIG       0.163600
     28 H5          49.2640    42.0980    46.4300 ha         1 LIG       0.144400
     29 H6          46.4940    45.9100    47.6930 hn         1 LIG       0.294400
     30 H7          45.9770    47.4100    49.2120 ha         1 LIG       0.165800
     31 H8          44.6130    50.6570    50.2270 hn         1 LIG       0.261000
     32 H9          44.5420    50.7780    52.4580 hc         1 LIG       0.133300
     33 H10         45.3090    47.9200    53.6780 hc         1 LIG       0.138100
     34 H11         44.1980    49.1260    54.4420 hc         1 LIG       0.138100
     35 H12         46.1230    50.7710    54.5210 h1         1 LIG       0.116400
     36 F1          47.3920    49.4980    53.6700 f          1 LIG      -0.186200
@<TRIPOS>BOND
     1     1     2 ar  
     2     1     5 1   
     3     1     8 ar  
     4     2     3 ar  
     5     2    11 1   
     6     3     9 ar  
     7     3    24 1   
     8     4     6 ar  
     9     4    13 1   
    10     4    16 ar  
    11     5    12 2   
    12     5    13 1   
    13     6     7 ar  
    14     6    25 1   
    15     7    14 ar  
    16     7    26 1   
    17     8    10 ar  
    18     8    23 1   
    19     9    10 ar  
    20     9    27 1   
    21    10    28 1   
    22    13    29 1   
    23    14    15 ar  
    24    15    16 ar  
    25    15    17 1   
    26    16    30 1   
    27    17    18 1   
    28    17    31 1   
    29    18    19 2   
    30    18    20 1   
    31    20    21 1   
    32    20    22 1   
    33    20    32 1   
    34    21    22 1   
    35    21    33 1   
    36    21    34 1   
    37    22    35 1   
    38    22    36 1   
@<TRIPOS>SUBSTRUCTURE
     1 LIG         1 TEMP              0 ****  ****    0 ROOT
