@<TRIPOS>MOLECULE
LIG
   39    41     1     0     0
SMALL
No Charge or Current Charge


@<TRIPOS>ATOM
      1 C1          46.9800    44.4810    45.6710 ca         1 LIG       0.115200
      2 C2          46.0060    43.6490    45.0850 ca         1 LIG      -0.055600
      3 C3          46.2240    42.2840    44.9510 ca         1 LIG      -0.077000
      4 C4          46.0910    47.8420    47.1300 ca         1 LIG       0.181100
      5 C5          46.7040    45.9320    45.7050 c          1 LIG       0.469300
      6 C6          45.8770    48.8280    46.1430 ca         1 LIG      -0.141500
      7 C7          45.4320    50.0870    46.5440 ca         1 LIG       0.087500
      8 C8          48.1690    43.9080    46.1600 ca         1 LIG      -0.052400
      9 C9          47.4010    41.7320    45.4260 ca         1 LIG      -0.158700
     10 C10         48.3680    42.5380    46.0260 ca         1 LIG      -0.079700
     11 Cl1         44.5040    44.3240    44.5670 cl         1 LIG      -0.064400
     12 O1          46.6890    46.5480    44.6340 o          1 LIG      -0.468700
     13 N1          46.4350    46.5100    46.8880 ns         1 LIG      -0.377300
     14 N2          45.2470    50.3580    47.8350 nb         1 LIG      -0.540500
     15 C11         45.4450    49.4650    48.8060 ca         1 LIG       0.524800
     16 C12         45.8510    48.1730    48.4630 ca         1 LIG      -0.344100
     17 N3          45.2640    49.8790    50.1370 ns         1 LIG      -0.402800
     18 C13         45.7010    49.2890    51.2760 c          1 LIG       0.496500
     19 O2          46.4030    48.2790    51.3010 o          1 LIG      -0.453800
     20 C14         45.2120    49.9180    52.6020 cx         1 LIG      -0.233900
     21 C15         44.9630    48.9460    53.7650 cx         1 LIG      -0.246800
     22 C16         46.0700    49.9430    53.8780 cx         1 LIG      -0.020100
     23 Cl2         49.3820    44.8510    46.9720 cl         1 LIG      -0.063500
     24 H1          45.4750    41.6610    44.4920 ha         1 LIG       0.144200
     25 H2          46.0020    48.6680    45.0870 ha         1 LIG       0.126400
     26 H3          45.2370    50.8760    45.8300 h4         1 LIG       0.126200
     27 H4          47.5720    40.6690    45.3260 ha         1 LIG       0.163600
     28 H5          49.2640    42.0980    46.4300 ha         1 LIG       0.144000
     29 H6          46.4940    45.9100    47.6930 hn         1 LIG       0.297700
     30 H7          45.9790    47.4100    49.2110 ha         1 LIG       0.148500
     31 H8          44.6410    50.6660    50.2390 hn         1 LIG       0.251500
     32 H9          44.5400    50.7600    52.4580 hc         1 LIG       0.143500
     33 H10         45.2270    47.8910    53.6720 hc         1 LIG       0.125500
     34 H11         44.0890    49.0910    54.3990 hc         1 LIG       0.125500
     35 H12         45.9060    50.7770    54.5610 hc         1 LIG       0.078800
     36 C17         47.5020    49.4010    53.9780 c3         1 LIG      -0.087800
     37 H13         48.2090    50.1310    53.5890 hc         1 LIG       0.039600
     38 H14         47.6480    48.4610    53.4480 hc         1 LIG       0.039600
     39 H15         47.7640    49.2120    55.0190 hc         1 LIG       0.039600
@<TRIPOS>BOND
     1     1     2 ar  
     2     1     5 1   
     3     1     8 ar  
     4     2     3 ar  
     5     2    11 1   
     6     3     9 ar  
     7     3    24 1   
     8     4     6 ar  
     9     4    13 1   
    10     4    16 ar  
    11     5    12 2   
    12     5    13 1   
    13     6     7 ar  
    14     6    25 1   
    15     7    14 ar  
    16     7    26 1   
    17     8    10 ar  
    18     8    23 1   
    19     9    10 ar  
    20     9    27 1   
    21    10    28 1   
    22    13    29 1   
    23    14    15 ar  
    24    15    16 ar  
    25    15    17 1   
    26    16    30 1   
    27    17    18 1   
    28    17    31 1   
    29    18    19 2   
    30    18    20 1   
    31    20    21 1   
    32    20    22 1   
    33    20    32 1   
    34    21    22 1   
    35    21    33 1   
    36    21    34 1   
    37    22    35 1   
    38    22    36 1   
    39    36    37 1   
    40    36    38 1   
    41    36    39 1   
@<TRIPOS>SUBSTRUCTURE
     1 LIG         1 TEMP              0 ****  ****    0 ROOT
