@<TRIPOS>MOLECULE
LIG
   37    39     1     0     0
SMALL
No Charge or Current Charge


@<TRIPOS>ATOM
      1 C1          46.9800    44.4810    45.6710 ca         1 LIG       0.121300
      2 C2          46.0060    43.6490    45.0850 ca         1 LIG      -0.052100
      3 C3          46.2240    42.2840    44.9510 ca         1 LIG      -0.078200
      4 C4          46.0910    47.8420    47.1300 ca         1 LIG       0.182100
      5 C5          46.7040    45.9320    45.7050 c          1 LIG       0.450200
      6 C6          45.8770    48.8280    46.1430 ca         1 LIG      -0.133700
      7 C7          45.4320    50.0870    46.5440 ca         1 LIG       0.088000
      8 C8          48.1690    43.9080    46.1600 ca         1 LIG      -0.055800
      9 C9          47.4010    41.7320    45.4260 ca         1 LIG      -0.160200
     10 C10         48.3680    42.5380    46.0260 ca         1 LIG      -0.075400
     11 Cl1         44.5040    44.3240    44.5670 cl         1 LIG      -0.066600
     12 O1          46.6890    46.5480    44.6340 o          1 LIG      -0.462700
     13 N1          46.4350    46.5100    46.8880 ns         1 LIG      -0.360300
     14 N2          45.2470    50.3580    47.8350 nb         1 LIG      -0.536800
     15 C11         45.4450    49.4650    48.8060 ca         1 LIG       0.523700
     16 C12         45.8510    48.1730    48.4630 ca         1 LIG      -0.358100
     17 N3          45.2210    49.8750    50.1240 ns         1 LIG      -0.425600
     18 C13         45.6810    49.3280    51.2710 c          1 LIG       0.541500
     19 O2          46.4980    48.4130    51.3300 o          1 LIG      -0.469700
     20 C14         45.0440    49.8700    52.5590 cx         1 LIG      -0.205300
     21 C15         44.9500    48.8890    53.7330 cx         1 LIG      -0.234900
     22 C16         45.8510    50.0800    53.8410 cx         1 LIG      -0.109600
     23 Cl2         49.3820    44.8510    46.9720 cl         1 LIG      -0.059100
     24 H1          45.4750    41.6610    44.4920 ha         1 LIG       0.144600
     25 H2          46.0030    48.6670    45.0870 ha         1 LIG       0.126500
     26 H3          45.2370    50.8760    45.8300 h4         1 LIG       0.127300
     27 H4          47.5720    40.6690    45.3260 ha         1 LIG       0.164400
     28 H5          49.2640    42.0980    46.4300 ha         1 LIG       0.143700
     29 H6          46.4940    45.9100    47.6930 hn         1 LIG       0.291700
     30 H7          45.9800    47.4210    49.2240 ha         1 LIG       0.172400
     31 H8          44.5170    50.5960    50.2080 hn         1 LIG       0.259900
     32 H9          44.2390    50.5710    52.3770 hc         1 LIG       0.159700
     33 H10         45.4060    47.8990    53.6650 hc         1 LIG       0.150700
     34 H11         44.0700    48.8840    54.3750 hc         1 LIG       0.150700
     35 C17         47.2890    49.8260    54.0070 c1         1 LIG       0.364800
     36 N4          48.4200    49.6370    54.1690 n1         1 LIG      -0.463200
     37 H12         45.5020    50.8630    54.5110 hc         1 LIG       0.144100
@<TRIPOS>BOND
     1     1     2 ar  
     2     1     5 1   
     3     1     8 ar  
     4     2     3 ar  
     5     2    11 1   
     6     3     9 ar  
     7     3    24 1   
     8     4     6 ar  
     9     4    13 1   
    10     4    16 ar  
    11     5    12 2   
    12     5    13 1   
    13     6     7 ar  
    14     6    25 1   
    15     7    14 ar  
    16     7    26 1   
    17     8    10 ar  
    18     8    23 1   
    19     9    10 ar  
    20     9    27 1   
    21    10    28 1   
    22    13    29 1   
    23    14    15 ar  
    24    15    16 ar  
    25    15    17 1   
    26    16    30 1   
    27    17    18 1   
    28    17    31 1   
    29    18    19 2   
    30    18    20 1   
    31    20    21 1   
    32    20    22 1   
    33    20    32 1   
    34    21    22 1   
    35    21    33 1   
    36    21    34 1   
    37    22    35 1   
    38    22    37 1   
    39    35    36 3   
@<TRIPOS>SUBSTRUCTURE
     1 LIG         1 TEMP              0 ****  ****    0 ROOT
